Circuit: * C:\Users\Michael\Documents\tank\electrical\Draft2.asc

Limiting rise time of source v1 to 0.01
Direct Newton iteration failed to find .op point.  (Use ".option noopiter" to skip.)
Starting Gmin stepping
Gmin = 10
Gmin = 1.07374
vernier = 0.5
vernier = 0.25
vernier = 0.125
vernier = 0.0625
Gmin = 1.08884
vernier = 0.03125
vernier = 0.015625
Gmin = 1.03922
vernier = 0.0078125
vernier = 0.00390625
Gmin = 1.02313
vernier = 0.00520833
vernier = 0.00260417
Gmin = 1.01616
vernier = 0.00347222
vernier = 0.00173611
vernier = 0.00231481
Gmin = 1.01205
vernier = 0.00115741
vernier = 0.00154321
vernier = 0.000771604
Gmin = 1.0104
vernier = 0.00102881
Gmin = 1.00812
vernier = 0.000514403
vernier = 0.00068587
Gmin = 1.00704
vernier = 0.000514403
vernier = 0.00068587
vernier = 0.000514402
Gmin = 1.00622
Gmin = 0
Gmin stepping failed

Starting source stepping with srcstepmethod=0
Source Step = 3.0303%
Source Step = 33.3333%
Source Step = 45.0758%
Source Step = 45.1497%
Source Step = 45.1793%
Source Step = 45.2089%
Source Step = 45.2385%
Source Step = 45.2681%
Source Step = 45.2977%
vernier = 0.00146484
Source Step = 45.3421%
Source Step = 45.3865%
Source Step = 45.4309%
Source Step = 45.4753%
Source Step = 45.5196%
vernier = 0.00219727
Source Step = 45.584%
Source Step = 45.6506%
Source Step = 45.7172%
Source Step = 45.7838%
Source Step = 45.8503%
vernier = 0.0032959
Source Step = 45.9436%
Source Step = 46.0434%
Source Step = 46.1433%
Source Step = 46.2432%
Source Step = 46.3431%
vernier = 0.00494385
Source Step = 46.4779%
Source Step = 46.6277%
Source Step = 46.7775%
Source Step = 46.9273%
Source Step = 47.0772%
vernier = 0.00741577
Source Step = 47.2719%
Source Step = 47.4966%
Source Step = 47.7214%
Source Step = 47.9461%
Source Step = 48.1708%
vernier = 0.0111237
Source Step = 48.4517%
Source Step = 48.7888%
Source Step = 49.1259%
Source Step = 49.4629%
Source Step = 49.8%
vernier = 0.0166855
Source Step = 50.2045%
Source Step = 50.7101%
Source Step = 51.2158%
Source Step = 51.7214%
Source Step = 52.227%
vernier = 0.0250282
Source Step = 52.8085%
Source Step = 53.5669%
Source Step = 54.3253%
Source Step = 55.0838%
Source Step = 55.8422%
vernier = 0.0375423
Source Step = 56.6765%
Source Step = 57.8141%
Source Step = 58.9518%
Source Step = 60.0894%
Source Step = 61.227%
vernier = 0.0563135
Source Step = 62.4216%
Source Step = 64.128%
Source Step = 65.8345%
Source Step = 67.541%
Source Step = 69.2475%
Source Step = 70.9539%
vernier = 0.0844703
Source Step = 73.5136%
Source Step = 76.0733%
Source Step = 78.633%
Source Step = 81.1927%
Source Step = 83.7525%
vernier = 0.126705
Source Step = 87.464%
Source Step = 91.3036%
vernier = 0.0316764
Source Step = 90.9676%
Source Step = 91.0276%
Source Step = 91.0876%
Source Step = 91.1476%
Source Step = 91.2076%
Source Step = 91.2676%
Source Step = 91.3276%
Source Step = 91.3876%
Source Step = 91.4476%
Source Step = 91.5076%
Source Step = 91.5676%
Source Step = 91.6275%
Source Step = 91.6875%
Source Step = 91.7475%
Source Step = 91.8075%
Source Step = 91.8675%
Source Step = 91.9275%
Source Step = 91.9875%
Source Step = 92.0475%
Source Step = 92.1075%
Source Step = 92.1675%
Source Step = 92.2275%
Source Step = 92.2875%
Source Step = 92.3475%
Source Step = 92.4075%
Source Step = 92.4674%
Source Step = 92.5274%
Source Step = 92.5874%
Source Step = 92.6474%
Source Step = 92.7074%
Source Step = 92.7674%
Source Step = 92.8274%
Source Step = 92.8874%
Source Step = 92.9474%
Source Step = 93.0074%
Source Step = 93.0674%
Source Step = 93.1274%
Source Step = 93.1874%
Source Step = 93.2474%
Source Step = 93.3074%
Source Step = 93.3673%
Source Step = 93.4273%
Source Step = 93.4873%
Source Step = 93.5473%
Source Step = 93.6073%
Source Step = 93.6673%
Source Step = 93.7273%
Source Step = 93.7873%
Source Step = 93.8473%
Source Step = 93.9073%
Source Step = 93.9673%
Source Step = 94.0273%
Source Step = 94.0873%
Source Step = 94.1473%
Source Step = 94.2072%
Source Step = 94.2672%
Source Step = 94.3272%
Source Step = 94.3872%
Source Step = 94.4472%
Source Step = 94.5072%
Source Step = 94.5672%
Source Step = 94.6272%
Source Step = 94.6872%
Source Step = 94.7472%
Source Step = 94.8072%
Source Step = 94.8672%
Source Step = 94.9272%
Source Step = 94.9872%
Source Step = 95.0472%
Source Step = 95.1071%
Source Step = 95.1671%
Source Step = 95.2271%
Source Step = 95.2871%
Source Step = 95.3471%
Source Step = 95.4071%
Source Step = 95.4671%
Source Step = 95.5271%
Source Step = 95.5871%
Source Step = 95.6471%
Source Step = 95.7071%
Source Step = 95.7671%
Source Step = 95.8271%
Source Step = 95.8871%
vernier = 0.00296966
Source Step = 95.962%
Source Step = 96.052%
Source Step = 96.142%
Source Step = 96.232%
Source Step = 96.322%
vernier = 0.00445449
Source Step = 96.43%
Source Step = 96.565%
Source Step = 96.7%
Source Step = 96.8349%
Source Step = 96.9699%
vernier = 0.00668173
Source Step = 97.1252%
Source Step = 97.3276%
Source Step = 97.5301%
Source Step = 97.7326%
Source Step = 97.9351%
vernier = 0.0100226
Source Step = 98.1578%
Source Step = 98.4615%
Source Step = 98.7652%
Source Step = 99.0689%
Source Step = 99.3727%
vernier = 0.0150339
Source Step = 99.6916%
Source stepping succeeded in finding the operating point.

Heightened Def Con from 0.00138706 to 0.00138706

Date: Mon May 20 11:42:59 2019
Total elapsed time: 19.222 seconds.

tnom = 27
temp = 27
method = modified trap
totiter = 446450
traniter = 385259
tranpoints = 105172
accept = 77442
rejected = 27731
matrix size = 74
fillins = 40
solver = Normal
Thread vector: 162.1/125.4[4] 12.1/6.4[4] 22.6/14.6[4] 2.0/3.3[1]  2592/500
Matrix Compiler1: 5.17 KB object code size  2.6/1.8/[0.9]
Matrix Compiler2: off  [4.6]/7.4/5.5

