Circuit: * C:\Users\Michael\Documents\tank\electrical\Draft1.asc

.OP point found by inspection.

Date: Wed Sep 26 14:21:25 2018
Total elapsed time: 0.299 seconds.

tnom = 27
temp = 27
method = modified trap
totiter = 66204
traniter = 66204
tranpoints = 33103
accept = 22179
rejected = 10924
matrix size = 3
fillins = 0
solver = Normal
Matrix Compiler1: 50 bytes object code size  0.0/0.1/[0.0]
Matrix Compiler2: 175 bytes object code size  0.0/0.1/[0.0]

